1

                    Execution started at 20190808.135846         



                    ---------------------------------------
                                     SWAN
                    SIMULATION OF WAVES IN NEAR SHORE AREAS
                             VERSION NUMBER 41.20AB             
                    ---------------------------------------


    
 $*************HEADING****************************************
    
 $
    
 PROJ 'swanExp' 'EXP'
    
 $
    
 $
    
 $ --|--------------------------------------------------------------|--
    
 $   | This SWAN input file is part of the bench mark tests for     |
    
 $   | SWAN. More information about this test can be found in       |
    
 $   | an accompanied document.                                     |
    
 $ --|--------------------------------------------------------------|--
    
 $
    
 $***********MODEL INPUT************************************
    
 MODE STAT ONED
    
 $
    
 CGRID 0. 0. 0. 2000 0. 800 0 CIRCLE 200 0.001 3.0 500
 Resolution in sigma-space: df/f =  0.0161
    
 $
    
 $
    
 INPGRID BOTTOM 0. 0. 0. 2000 0 1 1
    
 READINP BOTTOM 1. 'bathy.in'  1 0 FREE
    
 $
    
 $
    
 BOUN SHAPE BIN PEAK DSPR POWER
    
 BOUN SIDE E CCW CON PAR 5 10 200 2
    
 $
    
 $
    
 $ Processes
    
 $ OFF REFRAC
    
 OFF BREA
    
 $ FRIC JONSWAP cfjon=0.067
    
 OFF QUAD
    
 OFF WCAP
    
 $
    
 NUM ACCUR
    
 $
    
 $******************************************** OUTPUT REQUESTS *****************************************
    
 $
    
 CURVE  'LINE1' 0. 0.  600  2000 0.
    
 TABLE  'LINE1' HEAD   'swanResult.out'  DIST DEP  HS  DIR DSPR TM01 TM02  RTP   VEL    DISSURF  QB DISBOT
    
 $        *     *           fname         1   2    3   4   5     6    7    8    9-10      11    12   13
    
 $
    
 TEST 1,0
    
 COMPUTE
 ** Warning          : Limiter is de-activated in case of no quadruplets

----------------------------------------------------------------
                  COMPUTATIONAL PART OF SWAN
----------------------------------------------------------------

 One-dimensional mode of SWAN is activated
 Gridresolution       : MXC             801 MYC              1
                      : MCGRD           802
                      : MSC             501 MDC            200
                      : MTC               1
                      : NSTATC            0 ITERMX          50
 Propagation flags    : ITFRE             1 IREFR            1
 Source term flags    : IBOT              0 ISURF            0
                      : IWCAP             0 IWIND            0
                      : ITRIAD            0 IQUAD            0
                      : IVEG              0 ITURBV           0
                      : IMUD              0
 Spatial step         : DX       0.2500E+01 DY      0.2500E+01
 Spectral bin         : df/f     0.1614E-01 DDIR    0.1800E+01
 Physical constants   : GRAV     0.9810E+01 RHO     0.1025E+04
 Wind input           : WSPEED   0.0000E+00 DIR     0.0000E+00
 Tail parameters      : E(f)     0.4000E+01 E(k)    0.2500E+01
                      : A(f)     0.5000E+01 A(k)    0.3000E+01
 Accuracy parameters  : DREL     0.1000E-01 NPNTS   0.9950E+02
                      : DHOVAL   0.5000E-02 DTOVAL  0.1000E+04
                      : GRWMX    0.1000E+21
 Drying/flooding      : LEVEL    0.0000E+00 DEPMIN  0.5000E-01
 The Cartesian convention for wind and wave directions is used
 Scheme for geographic propagation is SORDUP
 Scheme geogr. space  : PROPSC            2 ICMAX            7
 Scheme spectral space: CSS      0.5000E+00 CDD     0.5000E+00
 Current is off
 Quadruplets is off
 Triads is off
 Bottom friction is off
 Vegetation is off
 Turbulence is off
 Fluid mud is off
 Whitecapping is off
 Surf breaking is off
 Set-up is off
 Diffraction is off
 Janssen (`89,`90)    : ALPHA    0.1000E-01 KAPPA   0.4100E+00
 Janssen (`89,`90)    : RHOA     0.1280E+01 RHOW    0.1025E+04
 
 1st and 2nd gen. wind: CF10     0.1880E+03 CF20    0.5900E+00
                      : CF30     0.1200E+00 CF40    0.2500E+03
                      : CF50     0.2300E-02 CF60   -0.2230E+00
                      : CF70     0.0000E+00 CF80   -0.5600E+00
                      : RHOAW    0.1249E-02 EDMLPM  0.3600E-02
                      : CDRAG    0.1230E-02 UMIN    0.1000E+01
                      : LIM_PM   0.1300E+00
 
 iteration    1; sweep 1
 iteration    1; sweep 2
 iteration    1; sweep 3
 iteration    1; sweep 4
 accuracy OK in   0.12 % of wet grid points ( 99.50 % required)

 iteration    2; sweep 1
 iteration    2; sweep 2
 iteration    2; sweep 3
 iteration    2; sweep 4
 accuracy OK in  98.75 % of wet grid points ( 99.50 % required)

 iteration    3; sweep 1
 iteration    3; sweep 2
 iteration    3; sweep 3
 iteration    3; sweep 4
 accuracy OK in 100.00 % of wet grid points ( 99.50 % required)

 
    
 STOP
